LTspice 24.0.12 for Windows
Circuit: * C:\Users\User\OneDrive - UNSW\Documents\LTspice\RadiatorFanSoftStart\Motor sim YES softstart different MOSFET.asc
Start Time: Thu Aug  8 15:45:59 2024
solver = Normal
Maximum thread count: 20
tnom = 27
temp = 27
method = modified trap
.OP point found by inspection.
Total elapsed time: 0.069 seconds.

