LTspice 24.0.12 for Windows
Circuit: * C:\Users\User\OneDrive - UNSW\Documents\LTspice\RadiatorFanSoftStart\Soft start circuit.asc
Start Time: Fri Aug  9 21:39:39 2024
solver = Normal
Maximum thread count: 20
tnom = 27
temp = 27
method = modified trap
.OP point found by inspection.
Total elapsed time: 0.086 seconds.

